Version 4
SHEET 1 1884 680
WIRE 1008 -272 944 -272
WIRE 1536 -272 1008 -272
WIRE 944 -224 944 -272
WIRE 1200 -224 1120 -224
WIRE 1280 -176 1232 -176
WIRE 1360 -176 1344 -176
WIRE 1360 -144 1360 -176
WIRE 48 -112 0 -112
WIRE 160 -112 128 -112
WIRE 192 -112 160 -112
WIRE 320 -112 256 -112
WIRE 432 -112 400 -112
WIRE 464 -112 432 -112
WIRE 560 -112 528 -112
WIRE 688 -112 560 -112
WIRE 944 -112 944 -144
WIRE 1120 -112 1120 -224
WIRE 1088 -96 1056 -96
WIRE 1200 -80 1200 -160
WIRE 0 -64 0 -112
WIRE 1008 -64 1008 -272
WIRE 1056 -64 1056 -96
WIRE 1232 -64 1232 -176
WIRE 160 -48 160 -112
WIRE 432 -48 432 -112
WIRE 560 -48 560 -112
WIRE 1344 -48 1264 -48
WIRE 1392 -48 1344 -48
WIRE 1344 -16 1344 -48
WIRE 928 0 928 -64
WIRE 928 0 912 0
WIRE 960 0 928 0
WIRE 1040 0 1024 0
WIRE 1088 0 1040 0
WIRE 1040 32 1040 0
WIRE 0 64 0 16
WIRE 160 64 160 16
WIRE 432 64 432 32
WIRE 560 64 560 32
WIRE 1344 64 1344 48
WIRE 1120 80 1120 16
WIRE 1040 144 1040 112
WIRE 1200 160 1200 -16
WIRE 1344 160 1344 144
WIRE 1344 160 1200 160
WIRE 1536 160 1536 -272
WIRE 1536 160 1344 160
FLAG 0 64 0
FLAG 432 64 0
FLAG 560 64 0
FLAG 160 64 0
FLAG 688 -112 MIC
IOPIN 688 -112 Out
FLAG 912 0 MIC
IOPIN 912 0 In
FLAG 1056 -64 0
FLAG 1360 -144 0
FLAG 1120 80 0
FLAG 1392 -48 SIGNAL
IOPIN 1392 -48 Out
FLAG 944 -112 0
FLAG 1040 144 0
SYMBOL voltage 0 -80 R0
WINDOW 123 0 0 Left 2
WINDOW 39 0 0 Left 2
SYMATTR InstName V1
SYMATTR Value PULSE(0 5 0 0.01u 0.01u 0.000195313 0.000390625)
SYMBOL res 144 -128 R90
WINDOW 0 0 56 VBottom 2
WINDOW 3 32 56 VTop 2
SYMATTR InstName R1
SYMATTR Value 18k
SYMBOL res 416 -128 R90
WINDOW 0 0 56 VBottom 2
WINDOW 3 32 56 VTop 2
SYMATTR InstName R2
SYMATTR Value 10k
SYMBOL res 448 48 R180
WINDOW 0 36 76 Left 2
WINDOW 3 36 40 Left 2
SYMATTR InstName R3
SYMATTR Value 270
SYMBOL res 576 48 R180
WINDOW 0 36 76 Left 2
WINDOW 3 36 40 Left 2
SYMATTR InstName R4
SYMATTR Value 270
SYMBOL cap 256 -128 R90
WINDOW 0 0 32 VBottom 2
WINDOW 3 32 32 VTop 2
SYMATTR InstName C1
SYMATTR Value 4.7n
SYMBOL cap 528 -128 R90
WINDOW 0 0 32 VBottom 2
WINDOW 3 32 32 VTop 2
SYMATTR InstName C2
SYMATTR Value 0.1µ
SYMBOL cap 144 -48 R0
SYMATTR InstName C3
SYMATTR Value 0.01µ
SYMBOL cap 1024 -16 R90
WINDOW 0 0 32 VBottom 2
WINDOW 3 32 32 VTop 2
SYMATTR InstName C4
SYMATTR Value 0.1µ
SYMBOL voltage 944 -240 R0
WINDOW 123 0 0 Left 2
WINDOW 39 0 0 Left 2
SYMATTR InstName V2
SYMATTR Value 5
SYMBOL Lm386 1136 -48 R0
SYMATTR InstName U1
SYMBOL cap 1184 -224 R0
SYMATTR InstName C5
SYMATTR Value 10µ
SYMBOL cap 1344 -192 R90
WINDOW 0 0 32 VBottom 2
WINDOW 3 32 32 VTop 2
SYMATTR InstName C6
SYMATTR Value 10µ
SYMBOL cap 1328 -16 R0
SYMATTR InstName C7
SYMATTR Value 0.047µ
SYMBOL res 1328 48 R0
SYMATTR InstName R10
SYMATTR Value 10
SYMBOL res 1024 16 R0
SYMATTR InstName R5
SYMATTR Value 10k
SYMBOL res 1024 -80 R90
WINDOW 0 0 56 VBottom 2
WINDOW 3 32 56 VTop 2
SYMATTR InstName R6
SYMATTR Value 1k
TEXT -32 88 Left 2 !.tran 0.01s
